trans-platin
  Mrv1810 02041922023D          

  5  4  0  0  0  0            999 V2000
   -2.1763    0.6362    1.0000 Co  0  0  0  0  0  0  0  0  0  0  0  0
   -2.0961    1.2325    0.4356 Cl  0  0  0  0  0  0  0  0  0  0  0  0
   -2.8414    1.0160    1.3067 N   0  0  0  0  0  4  0  0  0  0  0  0
   -1.5113    0.2563    0.6933 N   0  0  0  0  0  4  0  0  0  0  0  0
   -2.2566    0.0398    1.5644 Cl  0  0  0  0  0  0  0  0  0  0  0  0
  1  2  1  0  0  0  0
  1  3  1  0  0  0  0
  1  4  1  0  0  0  0
  1  5  1  0  0  0  0
M  END
$$$$
cis-platin
  Mrv1810 02041922023D          

  5  4  0  0  0  0            999 V2000
   -2.1763    0.6362    1.0000 Pt  0  0  0  0  0  0  0  0  0  0  0  0
   -2.0961    1.2325    0.4356 Cl  0  0  0  0  0  0  0  0  0  0  0  0
   -2.8414    1.0160    1.3067 Cl  0  0  0  0  0  0  0  0  0  0  0  0
   -1.5113    0.2563    0.6933 N   0  0  0  0  0  4  0  0  0  0  0  0
   -2.2566    0.0398    1.5644 N   0  0  0  0  0  4  0  0  0  0  0  0
  1  2  1  0  0  0  0
  1  3  1  0  0  0  0
  1  4  1  0  0  0  0
  1  5  1  0  0  0  0
M  END
$$$$