
  Mrv1810 02041921593D          

  7  6  0  0  0  0            999 V2000
   -2.4049    3.0685   -0.3112 C   0  0  0  0  0  0  0  0  0  0  0  0
   -0.9272    2.6053   -0.3714 C   0  0  2  0  0  0  0  0  0  0  0  0
   -0.7842    1.1550   -0.4443 C   0  0  0  0  0  0  0  0  0  0  0  0
   -0.2609    3.1059    0.7874 O   0  0  0  0  0  0  0  0  0  0  0  0
    0.4037    0.5336   -0.5464 C   0  0  0  0  0  0  0  0  0  0  0  0
    0.5376   -0.9096   -0.5984 C   0  0  0  0  0  0  0  0  0  0  0  0
   -0.4716    3.0586   -1.2553 H   0  0  0  0  0  0  0  0  0  0  0  0
  2  1  1  0  0  0  0
  2  3  1  0  0  0  0
  2  4  1  0  0  0  0
  3  5  2  0  0  0  0
  5  6  1  0  0  0  0
  2  7  1  0  0  0  0
M  END
$$$$
